
     RDKit          2D

 40 45  0  0  0  0  0  0  0  0999 V2000
    3.7427  -18.0350    0.0000 C   0  0  0  0  0  0  0  0  0  0  0  0
    5.2099  -17.7231    0.0000 C   0  0  0  0  0  0  0  0  0  0  0  0
    6.6771  -17.4113    0.0000 C   0  0  0  0  0  0  0  0  0  0  0  0
    5.5217  -19.1903    0.0000 C   0  0  0  0  0  0  0  0  0  0  0  0
    4.8980  -16.2559    0.0000 C   0  0  0  0  0  0  0  0  0  0  0  0
    5.9017  -15.1412    0.0000 C   0  0  0  0  0  0  0  0  0  0  0  0
    5.1517  -13.8421    0.0000 C   0  0  0  0  0  0  0  0  0  0  0  0
    3.6845  -14.1540    0.0000 N   0  0  0  0  0  0  0  0  0  0  0  0
    3.5277  -15.6458    0.0000 O   0  0  0  0  0  0  0  0  0  0  0  0
    5.7618  -12.4718    0.0000 N   0  0  0  0  0  0  0  0  0  0  0  0
    4.8801  -11.2583    0.0000 C   0  0  0  0  0  0  0  0  0  0  0  0
    3.3883  -11.4151    0.0000 O   0  0  0  0  0  0  0  0  0  0  0  0
    5.4902   -9.8880    0.0000 N   0  0  0  0  0  0  0  0  0  0  0  0
    4.6086   -8.6745    0.0000 C   0  0  0  0  0  0  0  0  0  0  0  0
    5.2187   -7.3041    0.0000 C   0  0  0  0  0  0  0  0  0  0  0  0
    4.3370   -6.0906    0.0000 C   0  0  0  0  0  0  0  0  0  0  0  0
    2.8452   -6.2474    0.0000 C   0  0  0  0  0  0  0  0  0  0  0  0
    2.2351   -7.6177    0.0000 C   0  0  0  0  0  0  0  0  0  0  0  0
    3.1168   -8.8313    0.0000 C   0  0  0  0  0  0  0  0  0  0  0  0
    1.9635   -5.0339    0.0000 C   0  0  0  0  0  0  0  0  0  0  0  0
    2.4271   -3.6073    0.0000 C   0  0  0  0  0  0  0  0  0  0  0  0
    1.2135   -2.7256    0.0000 N   0  0  0  0  0  0  0  0  0  0  0  0
    0.7500   -1.2990    0.0000 C   0  0  0  0  0  0  0  0  0  0  0  0
    1.5000    0.0000    0.0000 C   0  0  0  0  0  0  0  0  0  0  0  0
    0.7500    1.2990    0.0000 C   0  0  0  0  0  0  0  0  0  0  0  0
   -0.7500    1.2990    0.0000 C   0  0  0  0  0  0  0  0  0  0  0  0
   -1.5000    0.0000    0.0000 C   0  0  0  0  0  0  0  0  0  0  0  0
   -0.7500   -1.2990    0.0000 C   0  0  0  0  0  0  0  0  0  0  0  0
   -1.2135   -2.7256    0.0000 S   0  0  0  0  0  0  0  0  0  0  0  0
    0.0000   -3.6073    0.0000 C   0  0  0  0  0  0  0  0  0  0  0  0
    0.4635   -5.0339    0.0000 N   0  0  0  0  0  0  0  0  0  0  0  0
   -1.5000    2.5981    0.0000 O   0  0  0  0  0  0  0  0  0  0  0  0
   -0.7500    3.8971    0.0000 C   0  0  0  0  0  0  0  0  0  0  0  0
   -1.5000    5.1962    0.0000 C   0  0  0  0  0  0  0  0  0  0  0  0
   -0.7500    6.4952    0.0000 N   0  0  0  0  0  0  0  0  0  0  0  0
    0.7500    6.4952    0.0000 C   0  0  0  0  0  0  0  0  0  0  0  0
    1.5000    7.7942    0.0000 C   0  0  0  0  0  0  0  0  0  0  0  0
    0.7500    9.0933    0.0000 O   0  0  0  0  0  0  0  0  0  0  0  0
   -0.7500    9.0933    0.0000 C   0  0  0  0  0  0  0  0  0  0  0  0
   -1.5000    7.7942    0.0000 C   0  0  0  0  0  0  0  0  0  0  0  0
  1  2  1  0
  2  3  1  0
  2  4  1  0
  2  5  1  0
  5  6  2  0
  6  7  1  0
  7  8  2  0
  8  9  1  0
  7 10  1  0
 10 11  1  0
 11 12  2  0
 11 13  1  0
 13 14  1  0
 14 15  2  0
 15 16  1  0
 16 17  2  0
 17 18  1  0
 18 19  2  0
 17 20  1  0
 20 21  2  0
 21 22  1  0
 22 23  1  0
 23 24  2  0
 24 25  1  0
 25 26  2  0
 26 27  1  0
 27 28  2  0
 28 29  1  0
 29 30  1  0
 30 31  2  0
 26 32  1  0
 32 33  1  0
 33 34  1  0
 34 35  1  0
 35 36  1  0
 36 37  1  0
 37 38  1  0
 38 39  1  0
 39 40  1  0
  9  5  1  0
 19 14  1  0
 31 20  1  0
 30 22  1  0
 28 23  1  0
 40 35  1  0
M  END
