MODEL 1
REMARK VINA RESULT:      -9.7      0.000      0.000
REMARK SMILES COc1cc2c(N3CCN(C(=O)Nc4ccc(OC(C)C)cc4)CC3)ncnc2cc1OCCCN1CCCCC1
REMARK SMILES IDX 6 1 26 2 27 3 28 4 29 5 30 6 31 7 3 8 4 9 5 10 7 11 13 12
REMARK SMILES IDX 11 13 12 15 10 16 9 17 24 18 8 19 25 20 14 21 17 22 16 23
REMARK SMILES IDX 22 24 15 25 23 26 18 27 19 28 20 29 21 30 2 31 1 32 32 33
REMARK SMILES IDX 33 34 34 35 35 36 36 37 37 38 41 39 38 40 40 41 39 42
REMARK H PARENT 13 14
REMARK Flexibility Score: inf
ROOT
ATOM      1  C   UNL     1     -23.413 -56.427  27.374  1.00  0.00     0.140 A 
ATOM      2  N   UNL     1     -22.898 -57.510  26.704  1.00  0.00    -0.219 NA
ATOM      3  C   UNL     1     -22.633 -57.544  25.410  1.00  0.00     0.224 A 
ATOM      4  N   UNL     1     -22.880 -56.450  24.682  1.00  0.00    -0.236 NA
ATOM      5  C   UNL     1     -23.384 -55.356  25.278  1.00  0.00     0.080 A 
ATOM      6  C   UNL     1     -23.636 -54.225  24.521  1.00  0.00     0.079 A 
ATOM      7  C   UNL     1     -24.149 -53.078  25.071  1.00  0.00     0.163 A 
ATOM      8  C   UNL     1     -24.418 -53.076  26.453  1.00  0.00     0.161 A 
ATOM      9  C   UNL     1     -24.171 -54.187  27.204  1.00  0.00     0.064 A 
ATOM     10  C   UNL     1     -23.665 -55.309  26.630  1.00  0.00     0.047 A 
ENDROOT
BRANCH   1  11
ATOM     11  N   UNL     1     -23.667 -56.522  28.755  1.00  0.00    -0.352 N 
ATOM     12  N   UNL     1     -27.128 -55.489  32.270  1.00  0.00    -0.308 N 
ATOM     13  C   UNL     1     -25.784 -55.211  32.038  1.00  0.00     0.321 C 
ATOM     14  H   UNL     1     -27.659 -55.935  31.471  1.00  0.00     0.171 HD
ATOM     15  O   UNL     1     -25.125 -54.681  32.969  1.00  0.00    -0.248 OA
ATOM     16  N   UNL     1     -25.087 -55.489  30.795  1.00  0.00    -0.321 N 
ATOM     17  C   UNL     1     -23.692 -55.122  30.749  1.00  0.00     0.143 C 
ATOM     18  C   UNL     1     -25.759 -56.077  29.690  1.00  0.00     0.143 C 
ATOM     19  C   UNL     1     -22.877 -55.962  29.789  1.00  0.00     0.139 C 
ATOM     20  C   UNL     1     -24.874 -57.232  29.178  1.00  0.00     0.139 C 
BRANCH  12  21
ATOM     21  C   UNL     1     -27.898 -55.264  33.432  1.00  0.00     0.043 A 
ATOM     22  C   UNL     1     -29.497 -54.725  35.680  1.00  0.00     0.119 A 
ATOM     23  C   UNL     1     -29.637 -53.934  34.538  1.00  0.00     0.048 A 
ATOM     24  C   UNL     1     -28.589 -55.754  35.706  1.00  0.00     0.048 A 
ATOM     25  C   UNL     1     -28.842 -54.226  33.465  1.00  0.00     0.030 A 
ATOM     26  C   UNL     1     -27.814 -55.997  34.579  1.00  0.00     0.030 A 
BRANCH  22  27
ATOM     27  O   UNL     1     -30.247 -54.507  36.803  1.00  0.00    -0.491 OA
BRANCH  27  28
ATOM     28  C   UNL     1     -29.869 -54.042  38.046  1.00  0.00     0.167 C 
ATOM     29  C   UNL     1     -28.953 -54.987  38.794  1.00  0.00     0.052 C 
ATOM     30  C   UNL     1     -29.131 -52.713  37.803  1.00  0.00     0.052 C 
ENDBRANCH  27  28
ENDBRANCH  22  27
ENDBRANCH  12  21
ENDBRANCH   1  11
BRANCH   8  31
ATOM     31  O   UNL     1     -24.932 -51.926  27.012  1.00  0.00    -0.493 OA
ATOM     32  C   UNL     1     -26.051 -52.009  27.872  1.00  0.00     0.278 C 
ENDBRANCH   8  31
BRANCH   7  33
ATOM     33  O   UNL     1     -24.415 -51.944  24.355  1.00  0.00    -0.490 OA
BRANCH  33  34
ATOM     34  C   UNL     1     -23.718 -50.781  24.166  1.00  0.00     0.231 C 
BRANCH  34  35
ATOM     35  C   UNL     1     -22.234 -50.855  24.075  1.00  0.00     0.057 C 
BRANCH  35  36
ATOM     36  C   UNL     1     -21.671 -49.511  24.535  1.00  0.00     0.088 C 
BRANCH  36  37
ATOM     37  N   UNL     1     -20.632 -49.179  23.548  1.00  0.00    -0.303 NA
ATOM     38  C   UNL     1     -19.974 -50.425  23.210  1.00  0.00     0.084 C 
ATOM     39  C   UNL     1     -19.675 -48.339  24.279  1.00  0.00     0.084 C 
ATOM     40  C   UNL     1     -18.982 -50.232  22.081  1.00  0.00     0.016 C 
ATOM     41  C   UNL     1     -18.274 -48.697  23.879  1.00  0.00     0.016 C 
ATOM     42  C   UNL     1     -18.187 -48.985  22.414  1.00  0.00     0.003 C 
ENDBRANCH  36  37
ENDBRANCH  35  36
ENDBRANCH  34  35
ENDBRANCH  33  34
ENDBRANCH   7  33
TORSDOF 10
ENDMDL
